$DATA1 SOURCE='HSPICE' VERSION='L-2016.06 linux64' PARAM_COUNT=1
.TITLE '* fo4.sp'
 h                tpdr             tpdf             tpd             
                  trise            tfall            temper          
                  alter#          
    1.0000         1.543e-10        1.575e-10        1.559e-10      
                   1.462e-10        1.389e-10         70.0000       
                 1               
    2.0000         2.247e-10        2.156e-10        2.202e-10      
                   2.241e-10        2.124e-10         70.0000       
                 1               
    3.0000         2.929e-10        2.819e-10        2.874e-10      
                   2.993e-10        2.826e-10         70.0000       
                 1               
    4.0000         3.624e-10        3.447e-10        3.536e-10      
                   3.777e-10        3.537e-10         70.0000       
                 1               
    5.0000         4.318e-10        4.061e-10        4.189e-10      
                   4.512e-10        4.222e-10         70.0000       
                 1               
    6.0000         5.019e-10        4.687e-10        4.853e-10      
                   5.273e-10        4.989e-10         70.0000       
                 1               
    7.0000         5.702e-10        5.318e-10        5.510e-10      
                   6.062e-10        5.753e-10         70.0000       
                 1               
    8.0000         6.414e-10        5.934e-10        6.174e-10      
                   6.778e-10        6.400e-10         70.0000       
                 1               
