$DATA1 SOURCE='HSPICE' VERSION='L-2016.06 linux64' PARAM_COUNT=0
.TITLE '* ps5.sp'
 tpdr             tpdf             tpd              trise           
 tfall            temper           alter#          
 -1.742e-10        9.302e-10        3.780e-10          failed       
  8.468e-10         70.0000        1               
